[General]
network = WrrNetwork
sim-time-limit = 20s

*.client[0].iaTime = exponential(0.01s)
*.client[1].iaTime = exponential(0.055s)
*.client[2].iaTime = exponential(0.08s)
*.client[3].iaTime = exponential(0.02s)

*.client[*].packetLength = 7200B

*.switch.weights = "40 30 20 10"
*.switch.queueCapacity = 50

*.clientToSwitch.datarate = 2Mbps
*.clientToSwitch.delay = 0.2ms
*.switchToServer.datarate = 2Mbps
*.switchToServer.delay = 0.2ms

**.switch.wrrSelectionSignal.record = true
**.switch.queueLengthSignal.record = true
**.switch.dropSignal.record = true
**.server.rcvdSignal.record = true
**.server.latencySignal.record = true
**.somethingSignal.record = vector